*SPEF "IEEE 1481-1998"
*DESIGN "FIR"
*DATE "Wed May 16 12:07:46 2018"
*VENDOR "Cadence Design Systems, Inc."
*PROGRAM "Encounter"
*VERSION "14.26-s039_1"
*DESIGN_FLOW "COUPLING C" "PIN_CAP NONE" "NAME_SCOPE LOCAL"
*DIVIDER /
*DELIMITER :
*BUS_DELIMITER []
*T_UNIT 1 NS
*C_UNIT 1 PF
*R_UNIT 1 OHM
*L_UNIT 1 HENRY

// MMMC spef file for corner 'rc_worst'

*NAME_MAP

*1 clk
*2 rst_n
*3 data_in[7]
*4 data_in[6]
*5 data_in[5]
*6 data_in[4]
*7 data_in[3]
*8 data_in[2]
*9 data_in[1]
*10 data_in[0]
*11 enable
*12 configuration
*13 config_data_enable
*14 data_out[7]
*15 data_out[6]
*16 data_out[5]
*17 data_out[4]
*18 data_out[3]
*19 data_out[2]
*20 data_out[1]
*21 data_out[0]
*22 overflow_flag[1]
*23 overflow_flag[0]
*24 done[0]
*25 clk__L3_N34
*26 clk__L3_N33
*27 clk__L3_N32
*28 clk__L3_N31
*29 clk__L3_N30
*30 clk__L3_N29
*31 clk__L3_N28
*32 clk__L3_N27
*33 clk__L3_N26
*34 clk__L3_N25
*35 clk__L3_N24
*36 clk__L3_N23
*37 clk__L3_N22
*38 clk__L3_N21
*39 clk__L3_N20
*40 clk__L3_N19
*41 clk__L3_N18
*42 clk__L3_N17
*43 clk__L3_N16
*44 clk__L3_N15
*45 clk__L3_N14
*46 clk__L3_N13
*47 clk__L3_N12
*48 clk__L3_N11
*49 clk__L3_N10
*50 clk__L3_N9
*51 clk__L3_N8
*52 clk__L3_N7
*53 clk__L3_N6
*54 clk__L3_N5
*55 clk__L3_N4
*56 clk__L3_N3
*57 clk__L3_N2
*58 clk__L3_N1
*59 clk__L3_N0
*60 clk__L2_N6
*61 clk__L2_N5
*62 clk__L2_N4
*63 clk__L2_N3
*64 clk__L2_N2
*65 clk__L2_N1
*66 clk__L2_N0
*67 clk__L1_N0
*68 FE_OFN12_n243
*69 FE_OFN11_n223
*70 FE_OFN10_n222
*71 FE_DBTN9_data_in_7_
*72 FE_DBTN8_data_in_6_
*73 FE_DBTN7_data_in_5_
*74 FE_DBTN6_data_in_4_
*75 FE_DBTN5_data_in_3_
*76 FE_DBTN4_data_in_2_
*77 FE_DBTN3_data_in_1_
*78 FE_DBTN2_data_in_0_
*79 FE_DBTN1_rst_n
*80 FE_DBTN0_n243
*81 mac_1_done
*82 mac_2_done
*83 mac_3_done
*84 mac_4_done
*85 mac_done
*86 load_enable
*87 add_enable
*88 mac_1_enable
*89 mac_2_enable
*90 mac_3_enable
*91 mac_4_enable
*92 config_enable
*93 expand_enable
*94 judge_enable
*95 N10
*96 N11
*97 N12
*98 N13
*99 N14
*100 N15
*101 N16
*102 N17
*103 N18
*104 N19
*105 N20
*106 N21
*107 N22
*108 N23
*109 N24
*110 N25
*111 N26
*112 N27
*113 N28
*114 N29
*115 N30
*116 N31
*117 N32
*118 N33
*119 N34
*120 N35
*121 N36
*122 N37
*123 N38
*124 N39
*125 N40
*126 N41
*127 N42
*128 N43
*129 N44
*130 N45
*131 N46
*132 N47
*133 N48
*134 N49
*135 N50
*136 N51
*137 N52
*138 N53
*139 N54
*140 N55
*141 N56
*142 N57
*143 N58
*144 N59
*145 N60
*146 N61
*147 N62
*148 N63
*149 N64
*150 N65
*151 N66
*152 N67
*153 N68
*154 N69
*155 N70
*156 N71
*157 N72
*158 N73
*159 N74
*160 N75
*161 N76
*162 N77
*163 N78
*164 N79
*165 N80
*166 N81
*167 N82
*168 N83
*169 N84
*170 N85
*171 N86
*172 N87
*173 N88
*174 N89
*175 N90
*176 N91
*177 N92
*178 N93
*179 N94
*180 N95
*181 N96
*182 N97
*183 N98
*184 N99
*185 N100
*186 N101
*187 N102
*188 N103
*189 N104
*190 N105
*191 N106
*192 N107
*193 N108
*194 N109
*195 N110
*196 N111
*197 N112
*198 N113
*199 N114
*200 N115
*201 N116
*202 N117
*203 N118
*204 N119
*205 N120
*206 N121
*207 N122
*208 N123
*209 N124
*210 N125
*211 N126
*212 N127
*213 N128
*214 N129
*215 N130
*216 N131
*217 N132
*218 N133
*219 N134
*220 N135
*221 N136
*222 N137
*223 N152
*224 N153
*225 N154
*226 N164
*227 N165
*228 N166
*229 N176
*230 N177
*231 N178
*232 N188
*233 N189
*234 N190
*235 N221
*236 N222
*237 N223
*238 N224
*239 N225
*240 N226
*241 N227
*242 N228
*243 N229
*244 N230
*245 N231
*246 N232
*247 N233
*248 N234
*249 N235
*250 N236
*251 N237
*252 N238
*253 N239
*254 N240
*255 N241
*256 N242
*257 N243
*258 N244
*259 N273
*260 N274
*261 N275
*262 N276
*263 N277
*264 N278
*265 N279
*266 N280
*267 N281
*268 N282
*269 n58
*270 n59
*271 n60
*272 n61
*273 n62
*274 n63
*275 n64
*276 n65
*277 n66
*278 n67
*279 n68
*280 n69
*281 n70
*282 n71
*283 n72
*284 n73
*285 n74
*286 n75
*287 n76
*288 n77
*289 n78
*290 n79
*291 n80
*292 n81
*293 n82
*294 n83
*295 n84
*296 n85
*297 n86
*298 n87
*299 n88
*300 n89
*301 n90
*302 n91
*303 n92
*304 n93
*305 n94
*306 n95
*307 n96
*308 n97
*309 n98
*310 n99
*311 n100
*312 n101
*313 n102
*314 n103
*315 n104
*316 n105
*317 n106
*318 n107
*319 n108
*320 n109
*321 n110
*322 n111
*323 n112
*324 n113
*325 n114
*326 n115
*327 n116
*328 n117
*329 n118
*330 n119
*331 n120
*332 n121
*333 n122
*334 n123
*335 n124
*336 n125
*337 n126
*338 n127
*339 n128
*340 n129
*341 n130
*342 n131
*343 n132
*344 n133
*345 n134
*346 n135
*347 n136
*348 n137
*349 n138
*350 n139
*351 n140
*352 n141
*353 n142
*354 n143
*355 n144
*356 n145
*357 n146
*358 n147
*359 n148
*360 n149
*361 n150
*362 n151
*363 n152
*364 n153
*365 n154
*366 n155
*367 n156
*368 n157
*369 n158
*370 n159
*371 n160
*372 n161
*373 n162
*374 n163
*375 n164
*376 n165
*377 n166
*378 n167
*379 n168
*380 n169
*381 n170
*382 n171
*383 n172
*384 n173
*385 n174
*386 n175
*387 n176
*388 n177
*389 n178
*390 n179
*391 n180
*392 n181
*393 n182
*394 n183
*395 n184
*396 n185
*397 n186
*398 n187
*399 n188
*400 n189
*401 n190
*402 n191
*403 n192
*404 n193
*405 n194
*406 n195
*407 n196
*408 n197
*409 n198
*410 n199
*411 n200
*412 n201
*413 n202
*414 n203
*415 n204
*416 n205
*417 n206
*418 n207
*419 n208
*420 n209
*421 n210
*422 n211
*423 n212
*424 n222
*425 n223
*426 n224
*427 n225
*428 n226
*429 n227
*430 n228
*431 n229
*432 n230
*433 n231
*434 n232
*435 n233
*436 n234
*437 n235
*438 n236
*439 n237
*440 n238
*441 n239
*442 n240
*443 n241
*444 n242
*445 n243
*446 n244
*447 n245
*448 n246
*449 n247
*450 n248
*451 n249
*452 n250
*453 n251
*454 n252
*455 n253
*456 n254
*457 n255
*458 n256
*459 n257
*460 n258
*461 n259
*462 n260
*463 n261
*464 n262
*465 n263
*466 n264
*467 n265
*468 n266
*469 n267
*470 n268
*471 n269
*472 n270
*473 n271
*474 n272
*475 n273
*476 n274
*477 n275
*478 n276
*479 n277
*480 n278
*481 n279
*482 n280
*483 n281
*484 N220
*485 N219
*486 N218
*487 N217
*488 N216
*489 N215
*490 N214
*491 N213
*492 N212
*493 N211
*494 N210
*495 N209
*496 N208
*497 N207
*498 N206
*499 N205
*500 N204
*501 N203
*502 N202
*503 N201
*504 N200
*505 N199
*506 N198
*507 N197
*508 n318
*509 n319
*510 n320
*511 n321
*512 n322
*513 n323
*514 n324
*515 n325
*516 n326
*517 n327
*518 n328
*519 n329
*520 n330
*521 n331
*522 n332
*523 n333
*524 n334
*525 n335
*526 n336
*527 n337
*528 n338
*529 n339
*530 n340
*531 n341
*532 n342
*533 n343
*534 n344
*535 n345
*536 n346
*537 n347
*538 n348
*539 n349
*540 n350
*541 n351
*542 n352
*543 n353
*544 n354
*545 n355
*546 n356
*547 n357
*548 n358
*549 n359
*550 n360
*551 n361
*552 n362
*553 n363
*554 n364
*555 n365
*556 n366
*557 n367
*558 tap_num[3]
*559 tap_num[2]
*560 tap_num[1]
*561 tap_num[0]
*562 data_0[7]
*563 data_0[6]
*564 data_0[5]
*565 data_0[4]
*566 data_0[3]
*567 data_0[2]
*568 data_0[1]
*569 data_0[0]
*570 data_1[7]
*571 data_1[6]
*572 data_1[5]
*573 data_1[4]
*574 data_1[3]
*575 data_1[2]
*576 data_1[1]
*577 data_1[0]
*578 data_2[7]
*579 data_2[6]
*580 data_2[5]
*581 data_2[4]
*582 data_2[3]
*583 data_2[2]
*584 data_2[1]
*585 data_2[0]
*586 data_3[7]
*587 data_3[6]
*588 data_3[5]
*589 data_3[4]
*590 data_3[3]
*591 data_3[2]
*592 data_3[1]
*593 data_3[0]
*594 data_4[7]
*595 data_4[6]
*596 data_4[5]
*597 data_4[4]
*598 data_4[3]
*599 data_4[2]
*600 data_4[1]
*601 data_4[0]
*602 data_5[7]
*603 data_5[6]
*604 data_5[5]
*605 data_5[4]
*606 data_5[3]
*607 data_5[2]
*608 data_5[1]
*609 data_5[0]
*610 data_6[7]
*611 data_6[6]
*612 data_6[5]
*613 data_6[4]
*614 data_6[3]
*615 data_6[2]
*616 data_6[1]
*617 data_6[0]
*618 data_7[7]
*619 data_7[6]
*620 data_7[5]
*621 data_7[4]
*622 data_7[3]
*623 data_7[2]
*624 data_7[1]
*625 data_7[0]
*626 data_8[7]
*627 data_8[6]
*628 data_8[5]
*629 data_8[4]
*630 data_8[3]
*631 data_8[2]
*632 data_8[1]
*633 data_8[0]
*634 data_9[7]
*635 data_9[6]
*636 data_9[5]
*637 data_9[4]
*638 data_9[3]
*639 data_9[2]
*640 data_9[1]
*641 data_9[0]
*642 data_10[7]
*643 data_10[6]
*644 data_10[5]
*645 data_10[4]
*646 data_10[3]
*647 data_10[2]
*648 data_10[1]
*649 data_10[0]
*650 data_11[7]
*651 data_11[6]
*652 data_11[5]
*653 data_11[4]
*654 data_11[3]
*655 data_11[2]
*656 data_11[1]
*657 data_11[0]
*658 data_12[7]
*659 data_12[6]
*660 data_12[5]
*661 data_12[4]
*662 data_12[3]
*663 data_12[2]
*664 data_12[1]
*665 data_12[0]
*666 data_13[7]
*667 data_13[6]
*668 data_13[5]
*669 data_13[4]
*670 data_13[3]
*671 data_13[2]
*672 data_13[1]
*673 data_13[0]
*674 data_14[7]
*675 data_14[6]
*676 data_14[5]
*677 data_14[4]
*678 data_14[3]
*679 data_14[2]
*680 data_14[1]
*681 data_14[0]
*682 data_15[7]
*683 data_15[6]
*684 data_15[5]
*685 data_15[4]
*686 data_15[3]
*687 data_15[2]
*688 data_15[1]
*689 data_15[0]
*690 h_0[7]
*691 h_0[6]
*692 h_0[5]
*693 h_0[4]
*694 h_0[3]
*695 h_0[2]
*696 h_0[1]
*697 h_0[0]
*698 h_1[7]
*699 h_1[6]
*700 h_1[5]
*701 h_1[4]
*702 h_1[3]
*703 h_1[2]
*704 h_1[1]
*705 h_1[0]
*706 h_2[7]
*707 h_2[6]
*708 h_2[5]
*709 h_2[4]
*710 h_2[3]
*711 h_2[2]
*712 h_2[1]
*713 h_2[0]
*714 h_3[7]
*715 h_3[6]
*716 h_3[5]
*717 h_3[4]
*718 h_3[3]
*719 h_3[2]
*720 h_3[1]
*721 h_3[0]
*722 sum_1[9]
*723 sum_1[8]
*724 sum_1[7]
*725 sum_1[6]
*726 sum_1[5]
*727 sum_1[4]
*728 sum_1[3]
*729 sum_1[2]
*730 sum_1[1]
*731 sum_1[0]
*732 h_4[7]
*733 h_4[6]
*734 h_4[5]
*735 h_4[4]
*736 h_4[3]
*737 h_4[2]
*738 h_4[1]
*739 h_4[0]
*740 h_5[7]
*741 h_5[6]
*742 h_5[5]
*743 h_5[4]
*744 h_5[3]
*745 h_5[2]
*746 h_5[1]
*747 h_5[0]
*748 h_6[7]
*749 h_6[6]
*750 h_6[5]
*751 h_6[4]
*752 h_6[3]
*753 h_6[2]
*754 h_6[1]
*755 h_6[0]
*756 h_7[7]
*757 h_7[6]
*758 h_7[5]
*759 h_7[4]
*760 h_7[3]
*761 h_7[2]
*762 h_7[1]
*763 h_7[0]
*764 sum_2[9]
*765 sum_2[8]
*766 sum_2[7]
*767 sum_2[6]
*768 sum_2[5]
*769 sum_2[4]
*770 sum_2[3]
*771 sum_2[2]
*772 sum_2[1]
*773 sum_2[0]
*774 h_8[7]
*775 h_8[6]
*776 h_8[5]
*777 h_8[4]
*778 h_8[3]
*779 h_8[2]
*780 h_8[1]
*781 h_8[0]
*782 h_9[7]
*783 h_9[6]
*784 h_9[5]
*785 h_9[4]
*786 h_9[3]
*787 h_9[2]
*788 h_9[1]
*789 h_9[0]
*790 h_10[7]
*791 h_10[6]
*792 h_10[5]
*793 h_10[4]
*794 h_10[3]
*795 h_10[2]
*796 h_10[1]
*797 h_10[0]
*798 h_11[7]
*799 h_11[6]
*800 h_11[5]
*801 h_11[4]
*802 h_11[3]
*803 h_11[2]
*804 h_11[1]
*805 h_11[0]
*806 sum_3[9]
*807 sum_3[8]
*808 sum_3[7]
*809 sum_3[6]
*810 sum_3[5]
*811 sum_3[4]
*812 sum_3[3]
*813 sum_3[2]
*814 sum_3[1]
*815 sum_3[0]
*816 h_12[7]
*817 h_12[6]
*818 h_12[5]
*819 h_12[4]
*820 h_12[3]
*821 h_12[2]
*822 h_12[1]
*823 h_12[0]
*824 h_13[7]
*825 h_13[6]
*826 h_13[5]
*827 h_13[4]
*828 h_13[3]
*829 h_13[2]
*830 h_13[1]
*831 h_13[0]
*832 h_14[7]
*833 h_14[6]
*834 h_14[5]
*835 h_14[4]
*836 h_14[3]
*837 h_14[2]
*838 h_14[1]
*839 h_14[0]
*840 h_15[7]
*841 h_15[6]
*842 h_15[5]
*843 h_15[4]
*844 h_15[3]
*845 h_15[2]
*846 h_15[1]
*847 h_15[0]
*848 sum_4[9]
*849 sum_4[8]
*850 sum_4[7]
*851 sum_4[6]
*852 sum_4[5]
*853 sum_4[4]
*854 sum_4[3]
*855 sum_4[2]
*856 sum_4[1]
*857 sum_4[0]
*858 sum_1_1[11]
*859 sum_1_1[10]
*860 sum_1_1[9]
*861 sum_1_1[8]
*862 sum_1_1[7]
*863 sum_1_1[6]
*864 sum_1_1[5]
*865 sum_1_1[4]
*866 sum_1_1[3]
*867 sum_1_1[2]
*868 sum_1_1[1]
*869 sum_1_1[0]
*870 sum_2_2[11]
*871 sum_2_2[10]
*872 sum_2_2[9]
*873 sum_2_2[8]
*874 sum_2_2[7]
*875 sum_2_2[6]
*876 sum_2_2[5]
*877 sum_2_2[4]
*878 sum_2_2[3]
*879 sum_2_2[2]
*880 sum_2_2[1]
*881 sum_2_2[0]
*882 sum_3_3[11]
*883 sum_3_3[10]
*884 sum_3_3[9]
*885 sum_3_3[8]
*886 sum_3_3[7]
*887 sum_3_3[6]
*888 sum_3_3[5]
*889 sum_3_3[4]
*890 sum_3_3[3]
*891 sum_3_3[2]
*892 sum_3_3[1]
*893 sum_3_3[0]
*894 sum_4_4[11]
*895 sum_4_4[10]
*896 sum_4_4[9]
*897 sum_4_4[8]
*898 sum_4_4[7]
*899 sum_4_4[6]
*900 sum_4_4[5]
*901 sum_4_4[4]
*902 sum_4_4[3]
*903 sum_4_4[2]
*904 sum_4_4[1]
*905 sum_4_4[0]
*906 FIR_control_inst/N204
*907 FIR_control_inst/N205
*908 FIR_control_inst/N207
*909 FIR_control_inst/n13
*910 FIR_control_inst/n15
*911 FIR_control_inst/n16
*912 FIR_control_inst/n17
*913 FIR_control_inst/n18
*914 FIR_control_inst/n19
*915 FIR_control_inst/n20
*916 FIR_control_inst/n25
*917 FIR_control_inst/n26
*918 FIR_control_inst/n27
*919 FIR_control_inst/n28
*920 FIR_control_inst/n29
*921 FIR_control_inst/n30
*922 FIR_control_inst/n31
*923 FIR_control_inst/n32
*924 FIR_control_inst/n33
*925 FIR_control_inst/n34
*926 FIR_control_inst/n35
*927 FIR_control_inst/n36
*928 FIR_control_inst/n37
*929 FIR_control_inst/n38
*930 FIR_control_inst/n39
*931 FIR_control_inst/n40
*932 FIR_control_inst/n41
*933 FIR_control_inst/n42
*934 FIR_control_inst/n43
*935 FIR_control_inst/n44
*936 FIR_control_inst/n45
*937 FIR_control_inst/n46
*938 FIR_control_inst/n47
*939 FIR_control_inst/n48
*940 FIR_control_inst/n49
*941 FIR_control_inst/n50
*942 FIR_control_inst/n51
*943 FIR_control_inst/n52
*944 FIR_control_inst/n53
*945 FIR_control_inst/n54
*946 FIR_control_inst/n55
*947 FIR_control_inst/n56
*948 FIR_control_inst/n57
*949 FIR_control_inst/n58
*950 FIR_control_inst/n59
*951 FIR_control_inst/n60
*952 FIR_control_inst/n61
*953 FIR_control_inst/n62
*954 FIR_control_inst/n2
*955 FIR_control_inst/n3
*956 FIR_control_inst/n4
*957 FIR_control_inst/n5
*958 FIR_control_inst/n6
*959 FIR_control_inst/n7
*960 FIR_control_inst/n8
*961 FIR_control_inst/n9
*962 FIR_control_inst/n10
*963 FIR_control_inst/n11
*964 FIR_control_inst/n12
*965 FIR_control_inst/n14
*966 FIR_control_inst/n21
*967 FIR_control_inst/n22
*968 FIR_control_inst/n23
*969 FIR_control_inst/n24
*970 FIR_control_inst/state[7]
*971 FIR_control_inst/state[6]
*972 FIR_control_inst/state[5]
*973 FIR_control_inst/state[4]
*974 FIR_control_inst/state[3]
*975 FIR_control_inst/state[2]
*976 FIR_control_inst/state[1]
*977 FIR_control_inst/state[0]
*978 MAC_inst_1/FE_OFN18_n46
*979 MAC_inst_1/N16
*980 MAC_inst_1/N17
*981 MAC_inst_1/N18
*982 MAC_inst_1/n6
*983 MAC_inst_1/n9
*984 MAC_inst_1/n10
*985 MAC_inst_1/n11
*986 MAC_inst_1/n12
*987 MAC_inst_1/n13
*988 MAC_inst_1/n14
*989 MAC_inst_1/n15
*990 MAC_inst_1/n16
*991 MAC_inst_1/n17
*992 MAC_inst_1/n18
*993 MAC_inst_1/n19
*994 MAC_inst_1/n20
*995 MAC_inst_1/n32
*996 MAC_inst_1/n33
*997 MAC_inst_1/n34
*998 MAC_inst_1/n35
*999 MAC_inst_1/n36
*1000 MAC_inst_1/n37
*1001 MAC_inst_1/n38
*1002 MAC_inst_1/n39
*1003 MAC_inst_1/n40
*1004 MAC_inst_1/n41
*1005 MAC_inst_1/n42
*1006 MAC_inst_1/n43
*1007 MAC_inst_1/n44
*1008 MAC_inst_1/n45
*1009 MAC_inst_1/n46
*1010 MAC_inst_1/n47
*1011 MAC_inst_1/n48
*1012 MAC_inst_1/n49
*1013 MAC_inst_1/n50
*1014 MAC_inst_1/n51
*1015 MAC_inst_1/n52
*1016 MAC_inst_1/n53
*1017 MAC_inst_1/n54
*1018 MAC_inst_1/n55
*1019 MAC_inst_1/n56
*1020 MAC_inst_1/n57
*1021 MAC_inst_1/n58
*1022 MAC_inst_1/n59
*1023 MAC_inst_1/n60
*1024 MAC_inst_1/n61
*1025 MAC_inst_1/n62
*1026 MAC_inst_1/n63
*1027 MAC_inst_1/n64
*1028 MAC_inst_1/n65
*1029 MAC_inst_1/n66
*1030 MAC_inst_1/n67
*1031 MAC_inst_1/n68
*1032 MAC_inst_1/n69
*1033 MAC_inst_1/n70
*1034 MAC_inst_1/n71
*1035 MAC_inst_1/n72
*1036 MAC_inst_1/n73
*1037 MAC_inst_1/n74
*1038 MAC_inst_1/n75
*1039 MAC_inst_1/n76
*1040 MAC_inst_1/n77
*1041 MAC_inst_1/n78
*1042 MAC_inst_1/n79
*1043 MAC_inst_1/n80
*1044 MAC_inst_1/n81
*1045 MAC_inst_1/n82
*1046 MAC_inst_1/n83
*1047 MAC_inst_1/n84
*1048 MAC_inst_1/n85
*1049 MAC_inst_1/n86
*1050 MAC_inst_1/n87
*1051 MAC_inst_1/n88
*1052 MAC_inst_1/n89
*1053 MAC_inst_1/n90
*1054 MAC_inst_1/n91
*1055 MAC_inst_1/n92
*1056 MAC_inst_1/n93
*1057 MAC_inst_1/n94
*1058 MAC_inst_1/n95
*1059 MAC_inst_1/n96
*1060 MAC_inst_1/n97
*1061 MAC_inst_1/n98
*1062 MAC_inst_1/n99
*1063 MAC_inst_1/n100
*1064 MAC_inst_1/n101
*1065 MAC_inst_1/n102
*1066 MAC_inst_1/n103
*1067 MAC_inst_1/n104
*1068 MAC_inst_1/n105
*1069 MAC_inst_1/n106
*1070 MAC_inst_1/n107
*1071 MAC_inst_1/n108
*1072 MAC_inst_1/n109
*1073 MAC_inst_1/n110
*1074 MAC_inst_1/n111
*1075 MAC_inst_1/n112
*1076 MAC_inst_1/n113
*1077 MAC_inst_1/n114
*1078 MAC_inst_1/n115
*1079 MAC_inst_1/n116
*1080 MAC_inst_1/n117
*1081 MAC_inst_1/n118
*1082 MAC_inst_1/n119
*1083 MAC_inst_1/n120
*1084 MAC_inst_1/n121
*1085 MAC_inst_1/n122
*1086 MAC_inst_1/n123
*1087 MAC_inst_1/n124
*1088 MAC_inst_1/n125
*1089 MAC_inst_1/n126
*1090 MAC_inst_1/n127
*1091 MAC_inst_1/n128
*1092 MAC_inst_1/n2
*1093 MAC_inst_1/n3
*1094 MAC_inst_1/n4
*1095 MAC_inst_1/n5
*1096 MAC_inst_1/n7
*1097 MAC_inst_1/n8
*1098 MAC_inst_1/n21
*1099 MAC_inst_1/n22
*1100 MAC_inst_1/n23
*1101 MAC_inst_1/n24
*1102 MAC_inst_1/n25
*1103 MAC_inst_1/n26
*1104 MAC_inst_1/n27
*1105 MAC_inst_1/n28
*1106 MAC_inst_1/n29
*1107 MAC_inst_1/n30
*1108 MAC_inst_1/n31
*1109 MAC_inst_1/cnt[2]
*1110 MAC_inst_1/cnt[1]
*1111 MAC_inst_1/cnt[0]
*1112 MAC_inst_1/ac_sum_new[9]
*1113 MAC_inst_1/ac_sum_new[8]
*1114 MAC_inst_1/ac_sum_new[7]
*1115 MAC_inst_1/ac_sum_new[6]
*1116 MAC_inst_1/ac_sum_new[5]
*1117 MAC_inst_1/ac_sum_new[4]
*1118 MAC_inst_1/ac_sum_new[3]
*1119 MAC_inst_1/ac_sum_new[2]
*1120 MAC_inst_1/ac_sum_new[1]
*1121 MAC_inst_1/ac_sum_new[0]
*1122 MAC_inst_1/op_1[7]
*1123 MAC_inst_1/op_1[6]
*1124 MAC_inst_1/op_1[5]
*1125 MAC_inst_1/op_1[4]
*1126 MAC_inst_1/op_1[3]
*1127 MAC_inst_1/op_1[2]
*1128 MAC_inst_1/op_1[1]
*1129 MAC_inst_1/op_1[0]
*1130 MAC_inst_1/op_2[7]
*1131 MAC_inst_1/op_2[6]
*1132 MAC_inst_1/op_2[5]
*1133 MAC_inst_1/op_2[4]
*1134 MAC_inst_1/op_2[3]
*1135 MAC_inst_1/op_2[2]
*1136 MAC_inst_1/op_2[1]
*1137 MAC_inst_1/op_2[0]
*1138 MAC_inst_1/ac_sum_old[9]
*1139 MAC_inst_1/ac_sum_old[8]
*1140 MAC_inst_1/ac_sum_old[7]
*1141 MAC_inst_1/ac_sum_old[6]
*1142 MAC_inst_1/ac_sum_old[5]
*1143 MAC_inst_1/ac_sum_old[4]
*1144 MAC_inst_1/ac_sum_old[3]
*1145 MAC_inst_1/ac_sum_old[2]
*1146 MAC_inst_1/ac_sum_old[1]
*1147 MAC_inst_1/ac_sum_old[0]
*1148 MAC_inst_1/mac_operate_inst/N6
*1149 MAC_inst_1/mac_operate_inst/N7
*1150 MAC_inst_1/mac_operate_inst/N8
*1151 MAC_inst_1/mac_operate_inst/N9
*1152 MAC_inst_1/mac_operate_inst/N10
*1153 MAC_inst_1/mac_operate_inst/N11
*1154 MAC_inst_1/mac_operate_inst/N14
*1155 MAC_inst_1/mac_operate_inst/N15
*1156 MAC_inst_1/mac_operate_inst/N16
*1157 MAC_inst_1/mac_operate_inst/N17
*1158 MAC_inst_1/mac_operate_inst/N18
*1159 MAC_inst_1/mac_operate_inst/N19
*1160 MAC_inst_1/mac_operate_inst/flag
*1161 MAC_inst_1/mac_operate_inst/N21
*1162 MAC_inst_1/mac_operate_inst/N22
*1163 MAC_inst_1/mac_operate_inst/N23
*1164 MAC_inst_1/mac_operate_inst/N24
*1165 MAC_inst_1/mac_operate_inst/N25
*1166 MAC_inst_1/mac_operate_inst/N26
*1167 MAC_inst_1/mac_operate_inst/N27
*1168 MAC_inst_1/mac_operate_inst/n36
*1169 MAC_inst_1/mac_operate_inst/n37
*1170 MAC_inst_1/mac_operate_inst/n38
*1171 MAC_inst_1/mac_operate_inst/n39
*1172 MAC_inst_1/mac_operate_inst/n40
*1173 MAC_inst_1/mac_operate_inst/n41
*1174 MAC_inst_1/mac_operate_inst/n43
*1175 MAC_inst_1/mac_operate_inst/n44
*1176 MAC_inst_1/mac_operate_inst/n45
*1177 MAC_inst_1/mac_operate_inst/n46
*1178 MAC_inst_1/mac_operate_inst/n47
*1179 MAC_inst_1/mac_operate_inst/n48
*1180 MAC_inst_1/mac_operate_inst/n50
*1181 MAC_inst_1/mac_operate_inst/n51
*1182 MAC_inst_1/mac_operate_inst/n52
*1183 MAC_inst_1/mac_operate_inst/n53
*1184 MAC_inst_1/mac_operate_inst/n54
*1185 MAC_inst_1/mac_operate_inst/n55
*1186 MAC_inst_1/mac_operate_inst/n3
*1187 MAC_inst_1/mac_operate_inst/n4
*1188 MAC_inst_1/mac_operate_inst/n5
*1189 MAC_inst_1/mac_operate_inst/n6
*1190 MAC_inst_1/mac_operate_inst/n11
*1191 MAC_inst_1/mac_operate_inst/n12
*1192 MAC_inst_1/mac_operate_inst/n13
*1193 MAC_inst_1/mac_operate_inst/n14
*1194 MAC_inst_1/mac_operate_inst/n18
*1195 MAC_inst_1/mac_operate_inst/n19
*1196 MAC_inst_1/mac_operate_inst/n20
*1197 MAC_inst_1/mac_operate_inst/n21
*1198 MAC_inst_1/mac_operate_inst/n23
*1199 MAC_inst_1/mac_operate_inst/n25
*1200 MAC_inst_1/mac_operate_inst/n26
*1201 MAC_inst_1/mac_operate_inst/n27
*1202 MAC_inst_1/mac_operate_inst/n28
*1203 MAC_inst_1/mac_operate_inst/n29
*1204 MAC_inst_1/mac_operate_inst/n30
*1205 MAC_inst_1/mac_operate_inst/n31
*1206 MAC_inst_1/mac_operate_inst/n32
*1207 MAC_inst_1/mac_operate_inst/n33
*1208 MAC_inst_1/mac_operate_inst/n34
*1209 MAC_inst_1/mac_operate_inst/n35
*1210 MAC_inst_1/mac_operate_inst/n57
*1211 MAC_inst_1/mac_operate_inst/n58
*1212 MAC_inst_1/mac_operate_inst/mul_temp[13]
*1213 MAC_inst_1/mac_operate_inst/mul_temp[12]
*1214 MAC_inst_1/mac_operate_inst/mul_temp[11]
*1215 MAC_inst_1/mac_operate_inst/mul_temp[10]
*1216 MAC_inst_1/mac_operate_inst/mul_temp[9]
*1217 MAC_inst_1/mac_operate_inst/mul_temp[8]
*1218 MAC_inst_1/mac_operate_inst/sub_add_126_b0_carry[5]
*1219 MAC_inst_1/mac_operate_inst/sub_add_126_b0_carry[4]
*1220 MAC_inst_1/mac_operate_inst/sub_add_126_b0_carry[3]
*1221 MAC_inst_1/mac_operate_inst/sub_add_126_b0_carry[2]
*1222 MAC_inst_1/mac_operate_inst/sub_add_125_b0_carry[5]
*1223 MAC_inst_1/mac_operate_inst/sub_add_125_b0_carry[4]
*1224 MAC_inst_1/mac_operate_inst/sub_add_125_b0_carry[3]
*1225 MAC_inst_1/mac_operate_inst/sub_add_125_b0_carry[2]
*1226 MAC_inst_1/mac_operate_inst/sub_add_130_b0_carry[5]
*1227 MAC_inst_1/mac_operate_inst/sub_add_130_b0_carry[4]
*1228 MAC_inst_1/mac_operate_inst/sub_add_130_b0_carry[3]
*1229 MAC_inst_1/mac_operate_inst/sub_add_130_b0_carry[2]
*1230 MAC_inst_1/mac_operate_inst/add_131/n1
*1231 MAC_inst_1/mac_operate_inst/add_131/carry[9]
*1232 MAC_inst_1/mac_operate_inst/add_131/carry[8]
*1233 MAC_inst_1/mac_operate_inst/add_131/carry[7]
*1234 MAC_inst_1/mac_operate_inst/add_131/carry[6]
*1235 MAC_inst_1/mac_operate_inst/add_131/carry[5]
*1236 MAC_inst_1/mac_operate_inst/add_131/carry[4]
*1237 MAC_inst_1/mac_operate_inst/add_131/carry[3]
*1238 MAC_inst_1/mac_operate_inst/add_131/carry[2]
*1239 MAC_inst_1/mac_operate_inst/mult_128/n2
*1240 MAC_inst_1/mac_operate_inst/mult_128/n3
*1241 MAC_inst_1/mac_operate_inst/mult_128/n4
*1242 MAC_inst_1/mac_operate_inst/mult_128/n5
*1243 MAC_inst_1/mac_operate_inst/mult_128/n6
*1244 MAC_inst_1/mac_operate_inst/mult_128/n13
*1245 MAC_inst_1/mac_operate_inst/mult_128/n14
*1246 MAC_inst_1/mac_operate_inst/mult_128/n15
*1247 MAC_inst_1/mac_operate_inst/mult_128/n16
*1248 MAC_inst_1/mac_operate_inst/mult_128/n17
*1249 MAC_inst_1/mac_operate_inst/mult_128/n18
*1250 MAC_inst_1/mac_operate_inst/mult_128/n19
*1251 MAC_inst_1/mac_operate_inst/mult_128/n20
*1252 MAC_inst_1/mac_operate_inst/mult_128/n21
*1253 MAC_inst_1/mac_operate_inst/mult_128/n22
*1254 MAC_inst_1/mac_operate_inst/mult_128/n23
*1255 MAC_inst_1/mac_operate_inst/mult_128/n24
*1256 MAC_inst_1/mac_operate_inst/mult_128/n25
*1257 MAC_inst_1/mac_operate_inst/mult_128/n26
*1258 MAC_inst_1/mac_operate_inst/mult_128/n27
*1259 MAC_inst_1/mac_operate_inst/mult_128/n28
*1260 MAC_inst_1/mac_operate_inst/mult_128/n29
*1261 MAC_inst_1/mac_operate_inst/mult_128/n30
*1262 MAC_inst_1/mac_operate_inst/mult_128/n31
*1263 MAC_inst_1/mac_operate_inst/mult_128/n32
*1264 MAC_inst_1/mac_operate_inst/mult_128/n33
*1265 MAC_inst_1/mac_operate_inst/mult_128/n34
*1266 MAC_inst_1/mac_operate_inst/mult_128/n35
*1267 MAC_inst_1/mac_operate_inst/mult_128/n36
*1268 MAC_inst_1/mac_operate_inst/mult_128/n37
*1269 MAC_inst_1/mac_operate_inst/mult_128/n38
*1270 MAC_inst_1/mac_operate_inst/mult_128/n39
*1271 MAC_inst_1/mac_operate_inst/mult_128/n40
*1272 MAC_inst_1/mac_operate_inst/mult_128/n41
*1273 MAC_inst_1/mac_operate_inst/mult_128/n42
*1274 MAC_inst_1/mac_operate_inst/mult_128/n43
*1275 MAC_inst_1/mac_operate_inst/mult_128/n44
*1276 MAC_inst_1/mac_operate_inst/mult_128/n45
*1277 MAC_inst_1/mac_operate_inst/mult_128/n46
*1278 MAC_inst_1/mac_operate_inst/mult_128/n47
*1279 MAC_inst_1/mac_operate_inst/mult_128/n48
*1280 MAC_inst_1/mac_operate_inst/mult_128/n49
*1281 MAC_inst_1/mac_operate_inst/mult_128/n50
*1282 MAC_inst_1/mac_operate_inst/mult_128/n51
*1283 MAC_inst_1/mac_operate_inst/mult_128/n52
*1284 MAC_inst_1/mac_operate_inst/mult_128/n53
*1285 MAC_inst_1/mac_operate_inst/mult_128/n54
*1286 MAC_inst_1/mac_operate_inst/mult_128/n55
*1287 MAC_inst_1/mac_operate_inst/mult_128/n56
*1288 MAC_inst_1/mac_operate_inst/mult_128/n57
*1289 MAC_inst_1/mac_operate_inst/mult_128/n58
*1290 MAC_inst_1/mac_operate_inst/mult_128/n59
*1291 MAC_inst_1/mac_operate_inst/mult_128/n60
*1292 MAC_inst_1/mac_operate_inst/mult_128/n61
*1293 MAC_inst_1/mac_operate_inst/mult_128/n62
*1294 MAC_inst_1/mac_operate_inst/mult_128/n63
*1295 MAC_inst_1/mac_operate_inst/mult_128/n64
*1296 MAC_inst_1/mac_operate_inst/mult_128/n65
*1297 MAC_inst_1/mac_operate_inst/mult_128/n66
*1298 MAC_inst_1/mac_operate_inst/mult_128/n67
*1299 MAC_inst_1/mac_operate_inst/mult_128/n68
*1300 MAC_inst_1/mac_operate_inst/mult_128/n69
*1301 MAC_inst_1/mac_operate_inst/mult_128/n70
*1302 MAC_inst_1/mac_operate_inst/mult_128/n71
*1303 MAC_inst_1/mac_operate_inst/mult_128/n72
*1304 MAC_inst_1/mac_operate_inst/mult_128/n73
*1305 MAC_inst_1/mac_operate_inst/mult_128/n74
*1306 MAC_inst_1/mac_operate_inst/mult_128/n75
*1307 MAC_inst_1/mac_operate_inst/mult_128/n76
*1308 MAC_inst_1/mac_operate_inst/mult_128/n77
*1309 MAC_inst_1/mac_operate_inst/mult_128/n78
*1310 MAC_inst_1/mac_operate_inst/mult_128/n79
*1311 MAC_inst_1/mac_operate_inst/mult_128/n80
*1312 MAC_inst_1/mac_operate_inst/mult_128/n81
*1313 MAC_inst_1/mac_operate_inst/mult_128/n82
*1314 MAC_inst_1/mac_operate_inst/mult_128/n83
*1315 MAC_inst_1/mac_operate_inst/mult_128/n84
*1316 MAC_inst_1/mac_operate_inst/mult_128/n85
*1317 MAC_inst_1/mac_operate_inst/mult_128/n86
*1318 MAC_inst_1/mac_operate_inst/mult_128/n87
*1319 MAC_inst_1/mac_operate_inst/mult_128/n88
*1320 MAC_inst_1/mac_operate_inst/mult_128/n89
*1321 MAC_inst_1/mac_operate_inst/mult_128/n90
*1322 MAC_inst_1/mac_operate_inst/mult_128/n91
*1323 MAC_inst_1/mac_operate_inst/mult_128/n92
*1324 MAC_inst_1/mac_operate_inst/mult_128/n93
*1325 MAC_inst_1/mac_operate_inst/mult_128/n94
*1326 MAC_inst_1/mac_operate_inst/mult_128/n95
*1327 MAC_inst_1/mac_operate_inst/mult_128/n96
*1328 MAC_inst_1/mac_operate_inst/mult_128/n97
*1329 MAC_inst_1/mac_operate_inst/mult_128/n98
*1330 MAC_inst_1/mac_operate_inst/mult_128/n99
*1331 MAC_inst_1/mac_operate_inst/mult_128/n100
*1332 MAC_inst_1/mac_operate_inst/mult_128/n101
*1333 MAC_inst_1/mac_operate_inst/mult_128/n102
*1334 MAC_inst_1/mac_operate_inst/mult_128/n103
*1335 MAC_inst_1/mac_operate_inst/mult_128/n104
*1336 MAC_inst_1/mac_operate_inst/mult_128/n105
*1337 MAC_inst_1/mac_operate_inst/mult_128/n106
*1338 MAC_inst_1/mac_operate_inst/mult_128/n108
*1339 MAC_inst_1/mac_operate_inst/mult_128/n109
*1340 MAC_inst_1/mac_operate_inst/mult_128/n110
*1341 MAC_inst_1/mac_operate_inst/mult_128/n111
*1342 MAC_inst_1/mac_operate_inst/mult_128/n112
*1343 MAC_inst_1/mac_operate_inst/mult_128/n113
*1344 MAC_inst_1/mac_operate_inst/mult_128/n115
*1345 MAC_inst_1/mac_operate_inst/mult_128/n116
*1346 MAC_inst_1/mac_operate_inst/mult_128/n117
*1347 MAC_inst_1/mac_operate_inst/mult_128/n118
*1348 MAC_inst_1/mac_operate_inst/mult_128/n119
*1349 MAC_inst_1/mac_operate_inst/mult_128/n160
*1350 MAC_inst_1/mac_operate_inst/mult_128/n162
*1351 MAC_inst_1/mac_operate_inst/mult_128/n164
*1352 MAC_inst_1/mac_operate_inst/mult_128/n166
*1353 MAC_inst_1/mac_operate_inst/mult_128/n169
*1354 MAC_inst_1/mac_operate_inst/mult_128/n177
*1355 MAC_inst_1/mac_operate_inst/mult_128/n178
*1356 MAC_inst_1/mac_operate_inst/mult_128/n179
*1357 MAC_inst_1/mac_operate_inst/mult_128/n180
*1358 MAC_inst_1/mac_operate_inst/mult_128/n181
*1359 MAC_inst_1/mac_operate_inst/mult_128/n182
*1360 MAC_inst_1/mac_operate_inst/mult_128/n183
*1361 MAC_inst_1/mac_operate_inst/mult_128/n184
*1362 MAC_inst_1/mac_operate_inst/mult_128/n185
*1363 MAC_inst_2/N16
*1364 MAC_inst_2/N17
*1365 MAC_inst_2/N18
*1366 MAC_inst_2/n3
*1367 MAC_inst_2/n4
*1368 MAC_inst_2/n5
*1369 MAC_inst_2/n7
*1370 MAC_inst_2/n8
*1371 MAC_inst_2/n21
*1372 MAC_inst_2/n22
*1373 MAC_inst_2/n23
*1374 MAC_inst_2/n24
*1375 MAC_inst_2/n25
*1376 MAC_inst_2/n26
*1377 MAC_inst_2/n27
*1378 MAC_inst_2/n28
*1379 MAC_inst_2/n29
*1380 MAC_inst_2/n30
*1381 MAC_inst_2/n31
*1382 MAC_inst_2/n129
*1383 MAC_inst_2/n130
*1384 MAC_inst_2/n131
*1385 MAC_inst_2/n132
*1386 MAC_inst_2/n133
*1387 MAC_inst_2/n134
*1388 MAC_inst_2/n135
*1389 MAC_inst_2/n136
*1390 MAC_inst_2/n137
*1391 MAC_inst_2/n138
*1392 MAC_inst_2/n139
*1393 MAC_inst_2/n140
*1394 MAC_inst_2/n141
*1395 MAC_inst_2/n142
*1396 MAC_inst_2/n143
*1397 MAC_inst_2/n144
*1398 MAC_inst_2/n145
*1399 MAC_inst_2/n146
*1400 MAC_inst_2/n147
*1401 MAC_inst_2/n148
*1402 MAC_inst_2/n149
*1403 MAC_inst_2/n150
*1404 MAC_inst_2/n151
*1405 MAC_inst_2/n152
*1406 MAC_inst_2/n153
*1407 MAC_inst_2/n154
*1408 MAC_inst_2/n155
*1409 MAC_inst_2/n156
*1410 MAC_inst_2/n157
*1411 MAC_inst_2/n158
*1412 MAC_inst_2/n159
*1413 MAC_inst_2/n160
*1414 MAC_inst_2/n161
*1415 MAC_inst_2/n162
*1416 MAC_inst_2/n163
*1417 MAC_inst_2/n164
*1418 MAC_inst_2/n165
*1419 MAC_inst_2/n166
*1420 MAC_inst_2/n167
*1421 MAC_inst_2/n168
*1422 MAC_inst_2/n169
*1423 MAC_inst_2/n170
*1424 MAC_inst_2/n171
*1425 MAC_inst_2/n172
*1426 MAC_inst_2/n173
*1427 MAC_inst_2/n174
*1428 MAC_inst_2/n175
*1429 MAC_inst_2/n176
*1430 MAC_inst_2/n177
*1431 MAC_inst_2/n178
*1432 MAC_inst_2/n179
*1433 MAC_inst_2/n180
*1434 MAC_inst_2/n181
*1435 MAC_inst_2/n182
*1436 MAC_inst_2/n183
*1437 MAC_inst_2/n184
*1438 MAC_inst_2/n185
*1439 MAC_inst_2/n186
*1440 MAC_inst_2/n187
*1441 MAC_inst_2/n188
*1442 MAC_inst_2/n189
*1443 MAC_inst_2/n190
*1444 MAC_inst_2/n191
*1445 MAC_inst_2/n192
*1446 MAC_inst_2/n193
*1447 MAC_inst_2/n194
*1448 MAC_inst_2/n195
*1449 MAC_inst_2/n196
*1450 MAC_inst_2/n197
*1451 MAC_inst_2/n198
*1452 MAC_inst_2/n199
*1453 MAC_inst_2/n200
*1454 MAC_inst_2/n201
*1455 MAC_inst_2/n202
*1456 MAC_inst_2/n203
*1457 MAC_inst_2/n204
*1458 MAC_inst_2/n205
*1459 MAC_inst_2/n206
*1460 MAC_inst_2/n207
*1461 MAC_inst_2/n208
*1462 MAC_inst_2/n209
*1463 MAC_inst_2/n210
*1464 MAC_inst_2/n211
*1465 MAC_inst_2/n212
*1466 MAC_inst_2/n213
*1467 MAC_inst_2/n214
*1468 MAC_inst_2/n215
*1469 MAC_inst_2/n216
*1470 MAC_inst_2/n217
*1471 MAC_inst_2/n218
*1472 MAC_inst_2/n219
*1473 MAC_inst_2/n220
*1474 MAC_inst_2/n221
*1475 MAC_inst_2/n222
*1476 MAC_inst_2/n223
*1477 MAC_inst_2/n224
*1478 MAC_inst_2/n225
*1479 MAC_inst_2/n226
*1480 MAC_inst_2/n227
*1481 MAC_inst_2/n228
*1482 MAC_inst_2/n229
*1483 MAC_inst_2/n230
*1484 MAC_inst_2/n231
*1485 MAC_inst_2/n232
*1486 MAC_inst_2/n233
*1487 MAC_inst_2/n234
*1488 MAC_inst_2/n235
*1489 MAC_inst_2/n236
*1490 MAC_inst_2/n237
*1491 MAC_inst_2/n238
*1492 MAC_inst_2/n239
*1493 MAC_inst_2/cnt[2]
*1494 MAC_inst_2/cnt[1]
*1495 MAC_inst_2/cnt[0]
*1496 MAC_inst_2/ac_sum_new[9]
*1497 MAC_inst_2/ac_sum_new[8]
*1498 MAC_inst_2/ac_sum_new[7]
*1499 MAC_inst_2/ac_sum_new[6]
*1500 MAC_inst_2/ac_sum_new[5]
*1501 MAC_inst_2/ac_sum_new[4]
*1502 MAC_inst_2/ac_sum_new[3]
*1503 MAC_inst_2/ac_sum_new[2]